instances/data_GOC/Phase_0_Modified_RTS96/scenario_21/powersystem.raw
 0,  100.000000
rts96_spring_wday.raw / File written by to_psse.gms
5 / 19 / 2015
101, ' 101 ',138,2,1,1,1,1.00,0.00,1.1,0.9,1.1,0.9
102, ' 102 ',138,2,1,1,1,1.00,0.00,1.1,0.9,1.1,0.9
103, ' 103 ',138,1,1,1,1,1.00,0.00,1.1,0.9,1.1,0.9
104, ' 104 ',138,1,1,1,1,1.00,0.00,1.1,0.9,1.1,0.9
105, ' 105 ',138,1,1,1,1,1.00,0.00,1.1,0.9,1.1,0.9
106, ' 106 ',138,1,1,1,1,1.00,0.00,1.1,0.9,1.1,0.9
107, ' 107 ',138,2,1,1,1,1.00,0.00,1.1,0.9,1.1,0.9
108, ' 108 ',138,1,1,1,1,1.00,0.00,1.1,0.9,1.1,0.9
109, ' 109 ',138,1,1,1,1,1.00,0.00,1.1,0.9,1.1,0.9
110, ' 110 ',138,1,1,1,1,1.00,0.00,1.1,0.9,1.1,0.9
111, ' 111 ',230,1,1,1,1,1.00,0.00,1.1,0.9,1.1,0.9
112, ' 112 ',230,1,1,1,1,1.00,0.00,1.1,0.9,1.1,0.9
113, ' 113 ',230,3,1,1,1,1.00,0.00,1.1,0.9,1.1,0.9
114, ' 114 ',230,2,1,1,1,1.00,0.00,1.1,0.9,1.1,0.9
115, ' 115 ',230,2,1,1,1,1.00,0.00,1.1,0.9,1.1,0.9
116, ' 116 ',230,2,1,1,1,1.00,0.00,1.1,0.9,1.1,0.9
117, ' 117 ',230,1,1,1,1,1.00,0.00,1.1,0.9,1.1,0.9
118, ' 118 ',230,2,1,1,1,1.00,0.00,1.1,0.9,1.1,0.9
119, ' 119 ',230,1,1,1,1,1.00,0.00,1.1,0.9,1.1,0.9
120, ' 120 ',230,1,1,1,1,1.00,0.00,1.1,0.9,1.1,0.9
121, ' 121 ',230,2,1,1,1,1.00,0.00,1.1,0.9,1.1,0.9
122, ' 122 ',230,2,1,1,1,1.00,0.00,1.1,0.9,1.1,0.9
123, ' 123 ',230,2,1,1,1,1.00,0.00,1.1,0.9,1.1,0.9
124, ' 124 ',230,1,1,1,1,1.00,0.00,1.1,0.9,1.1,0.9
201, ' 201 ',138,2,1,1,1,1.00,0.00,1.1,0.9,1.1,0.9
202, ' 202 ',138,2,1,1,1,1.00,0.00,1.1,0.9,1.1,0.9
203, ' 203 ',138,1,1,1,1,1.00,0.00,1.1,0.9,1.1,0.9
204, ' 204 ',138,1,1,1,1,1.00,0.00,1.1,0.9,1.1,0.9
205, ' 205 ',138,1,1,1,1,1.00,0.00,1.1,0.9,1.1,0.9
206, ' 206 ',138,1,1,1,1,1.00,0.00,1.1,0.9,1.1,0.9
207, ' 207 ',138,2,1,1,1,1.00,0.00,1.1,0.9,1.1,0.9
208, ' 208 ',138,1,1,1,1,1.00,0.00,1.1,0.9,1.1,0.9
209, ' 209 ',138,1,1,1,1,1.00,0.00,1.1,0.9,1.1,0.9
210, ' 210 ',138,1,1,1,1,1.00,0.00,1.1,0.9,1.1,0.9
211, ' 211 ',230,1,1,1,1,1.00,0.00,1.1,0.9,1.1,0.9
212, ' 212 ',230,1,1,1,1,1.00,0.00,1.1,0.9,1.1,0.9
213, ' 213 ',230,2,1,1,1,1.00,0.00,1.1,0.9,1.1,0.9
214, ' 214 ',230,2,1,1,1,1.00,0.00,1.1,0.9,1.1,0.9
215, ' 215 ',230,2,1,1,1,1.00,0.00,1.1,0.9,1.1,0.9
216, ' 216 ',230,2,1,1,1,1.00,0.00,1.1,0.9,1.1,0.9
217, ' 217 ',230,1,1,1,1,1.00,0.00,1.1,0.9,1.1,0.9
218, ' 218 ',230,2,1,1,1,1.00,0.00,1.1,0.9,1.1,0.9
219, ' 219 ',230,1,1,1,1,1.00,0.00,1.1,0.9,1.1,0.9
220, ' 220 ',230,1,1,1,1,1.00,0.00,1.1,0.9,1.1,0.9
221, ' 221 ',230,2,1,1,1,1.00,0.00,1.1,0.9,1.1,0.9
222, ' 222 ',230,2,1,1,1,1.00,0.00,1.1,0.9,1.1,0.9
223, ' 223 ',230,2,1,1,1,1.00,0.00,1.1,0.9,1.1,0.9
224, ' 224 ',230,1,1,1,1,1.00,0.00,1.1,0.9,1.1,0.9
301, ' 301 ',138,2,1,1,1,1.00,0.00,1.1,0.9,1.1,0.9
302, ' 302 ',138,2,1,1,1,1.00,0.00,1.1,0.9,1.1,0.9
303, ' 303 ',138,1,1,1,1,1.00,0.00,1.1,0.9,1.1,0.9
304, ' 304 ',138,1,1,1,1,1.00,0.00,1.1,0.9,1.1,0.9
305, ' 305 ',138,1,1,1,1,1.00,0.00,1.1,0.9,1.1,0.9
306, ' 306 ',138,1,1,1,1,1.00,0.00,1.1,0.9,1.1,0.9
307, ' 307 ',138,2,1,1,1,1.00,0.00,1.1,0.9,1.1,0.9
308, ' 308 ',138,1,1,1,1,1.00,0.00,1.1,0.9,1.1,0.9
309, ' 309 ',138,1,1,1,1,1.00,0.00,1.1,0.9,1.1,0.9
310, ' 310 ',138,1,1,1,1,1.00,0.00,1.1,0.9,1.1,0.9
311, ' 311 ',230,1,1,1,1,1.00,0.00,1.1,0.9,1.1,0.9
312, ' 312 ',230,1,1,1,1,1.00,0.00,1.1,0.9,1.1,0.9
313, ' 313 ',230,2,1,1,1,1.00,0.00,1.1,0.9,1.1,0.9
314, ' 314 ',230,2,1,1,1,1.00,0.00,1.1,0.9,1.1,0.9
315, ' 315 ',230,2,1,1,1,1.00,0.00,1.1,0.9,1.1,0.9
316, ' 316 ',230,2,1,1,1,1.00,0.00,1.1,0.9,1.1,0.9
317, ' 317 ',230,1,1,1,1,1.00,0.00,1.1,0.9,1.1,0.9
318, ' 318 ',230,2,1,1,1,1.00,0.00,1.1,0.9,1.1,0.9
319, ' 319 ',230,1,1,1,1,1.00,0.00,1.1,0.9,1.1,0.9
320, ' 320 ',230,1,1,1,1,1.00,0.00,1.1,0.9,1.1,0.9
321, ' 321 ',230,2,1,1,1,1.00,0.00,1.1,0.9,1.1,0.9
322, ' 322 ',230,2,1,1,1,1.00,0.00,1.1,0.9,1.1,0.9
323, ' 323 ',230,2,1,1,1,1.00,0.00,1.1,0.9,1.1,0.9
324, ' 324 ',230,1,1,1,1,1.00,0.00,1.1,0.9,1.1,0.9
325, ' 325 ',230,1,1,1,1,1.00,0.00,1.1,0.9,1.1,0.9
0 / END OF BUS DATA, BEGIN LOAD DATA
101, '1 ',1,11,11,78.42490832079592,17.927136495049485,0.0,0.0,0.0,0.0,1,1,0
102, '1 ',1,11,12,80.2540631416669,9.880432955324649,0.0,0.0,0.0,0.0,1,1,0
103, '1 ',1,11,11,158.56726000537444,21.075799158091424,0.0,0.0,0.0,0.0,1,1,0
104, '1 ',1,11,11,66.51885577926915,10.639081391992047,0.0,0.0,0.0,0.0,1,1,0
105, '1 ',1,11,11,44.57868246377036,10.43753253270993,0.0,0.0,0.0,0.0,1,1,0
106, '1 ',1,11,12,94.42146694385782,16.217614479952676,0.0,0.0,0.0,0.0,1,1,0
107, '1 ',1,11,12,89.18525230478262,19.652760621062477,0.0,0.0,0.0,0.0,1,1,0
108, '1 ',1,11,12,145.2076184275284,18.018483274127586,0.0,0.0,0.0,0.0,1,1,0
109, '1 ',1,11,13,105.69001487500034,21.231180837468806,0.0,0.0,0.0,0.0,1,1,0
110, '1 ',1,11,13,105.96259292634156,28.08020302003808,0.0,0.0,0.0,0.0,1,1,0
111, '1 ',1,11,13,0.0,0.0,0.0,0.0,0.0,0.0,1,1,0
112, '1 ',1,11,13,0.0,0.0,0.0,0.0,0.0,0.0,1,1,0
113, '1 ',1,12,14,238.2546604783677,30.97988040597103,0.0,0.0,0.0,0.0,1,1,0
114, '1 ',1,12,16,125.88512835925884,30.789477955313817,0.0,0.0,0.0,0.0,1,1,0
115, '1 ',1,12,16,218.90824709461538,38.78760911858082,0.0,0.0,0.0,0.0,1,1,0
116, '1 ',1,12,16,54.295080438083964,14.527917036884464,0.0,0.0,0.0,0.0,1,1,0
117, '1 ',1,12,17,0.0,0.0,0.0,0.0,0.0,0.0,1,1,0
118, '1 ',1,12,17,290.023518916863,60.872321704674334,0.0,0.0,0.0,0.0,1,1,0
119, '1 ',1,12,15,87.99967406660747,21.955275024585795,0.0,0.0,0.0,0.0,1,1,0
120, '1 ',1,12,15,73.46915141481756,22.271895626055077,0.0,0.0,0.0,0.0,1,1,0
121, '1 ',1,12,17,0.0,0.0,0.0,0.0,0.0,0.0,1,1,0
122, '1 ',1,12,17,0.0,0.0,0.0,0.0,0.0,0.0,1,1,0
123, '1 ',1,12,15,0.0,0.0,0.0,0.0,0.0,0.0,1,1,0
124, '1 ',1,12,16,0.0,0.0,0.0,0.0,0.0,0.0,1,1,0
201, '1 ',1,21,21,70.18256593849304,13.41441167078521,0.0,0.0,0.0,0.0,1,1,0
202, '1 ',1,21,22,60.127513057501154,10.028491403203457,0.0,0.0,0.0,0.0,1,1,0
203, '1 ',1,21,21,150.02559326641727,20.580101655276025,0.0,0.0,0.0,0.0,1,1,0
204, '1 ',1,21,21,63.053639284872446,9.675137513409135,0.0,0.0,0.0,0.0,1,1,0
205, '1 ',1,21,21,61.905125904405494,12.407118855291792,0.0,0.0,0.0,0.0,1,1,0
206, '1 ',1,21,22,81.78637990331949,17.033154320720026,0.0,0.0,0.0,0.0,1,1,0
207, '1 ',1,21,22,83.06090415899526,16.40788501974195,0.0,0.0,0.0,0.0,1,1,0
208, '1 ',1,21,22,108.77241900479682,24.2791186282821,0.0,0.0,0.0,0.0,1,1,0
209, '1 ',1,21,23,137.79602045868407,18.99052590874638,0.0,0.0,0.0,0.0,1,1,0
210, '1 ',1,21,23,156.89354833811197,29.42700073223747,0.0,0.0,0.0,0.0,1,1,0
211, '1 ',1,21,23,0.0,0.0,0.0,0.0,0.0,0.0,1,1,0
212, '1 ',1,21,23,0.0,0.0,0.0,0.0,0.0,0.0,1,1,0
213, '1 ',1,22,24,234.23820573898334,39.82790690335119,0.0,0.0,0.0,0.0,1,1,0
214, '1 ',1,22,26,135.2890937268921,25.972238628854463,0.0,0.0,0.0,0.0,1,1,0
215, '1 ',1,22,26,186.36869607823212,49.8035459194064,0.0,0.0,0.0,0.0,1,1,0
216, '1 ',1,22,26,55.096076638475054,11.160594828547909,0.0,0.0,0.0,0.0,1,1,0
217, '1 ',1,22,27,0.0,0.0,0.0,0.0,0.0,0.0,1,1,0
218, '1 ',1,22,27,245.53015687564476,45.04560073072873,0.0,0.0,0.0,0.0,1,1,0
219, '1 ',1,22,25,105.83857998082806,27.377685999611437,0.0,0.0,0.0,0.0,1,1,0
220, '1 ',1,22,25,62.921688016158335,20.97009553691056,0.0,0.0,0.0,0.0,1,1,0
221, '1 ',1,22,27,0.0,0.0,0.0,0.0,0.0,0.0,1,1,0
222, '1 ',1,22,27,0.0,0.0,0.0,0.0,0.0,0.0,1,1,0
223, '1 ',1,22,25,0.0,0.0,0.0,0.0,0.0,0.0,1,1,0
224, '1 ',1,22,26,0.0,0.0,0.0,0.0,0.0,0.0,1,1,0
301, '1 ',1,31,31,62.45557612878474,14.204910406472068,0.0,0.0,0.0,0.0,1,1,0
302, '1 ',1,31,32,82.23921065668095,15.394713742696679,0.0,0.0,0.0,0.0,1,1,0
303, '1 ',1,31,31,155.10435165439267,21.990560287081724,0.0,0.0,0.0,0.0,1,1,0
304, '1 ',1,31,31,39.706769292849394,9.455535956312204,0.0,0.0,0.0,0.0,1,1,0
305, '1 ',1,31,31,58.91096457198342,9.64778517125426,0.0,0.0,0.0,0.0,1,1,0
306, '1 ',1,31,32,114.97056748331937,23.39952675205898,0.0,0.0,0.0,0.0,1,1,0
307, '1 ',1,31,32,66.31331750698155,18.78210080420715,0.0,0.0,0.0,0.0,1,1,0
308, '1 ',1,31,32,151.42329738984424,19.758988496588543,0.0,0.0,0.0,0.0,1,1,0
309, '1 ',1,31,33,131.32642984527396,18.016644517563094,0.0,0.0,0.0,0.0,1,1,0
310, '1 ',1,31,33,153.72483965272923,20.993715219335627,0.0,0.0,0.0,0.0,1,1,0
311, '1 ',1,31,33,0.0,0.0,0.0,0.0,0.0,0.0,1,1,0
312, '1 ',1,31,33,0.0,0.0,0.0,0.0,0.0,0.0,1,1,0
313, '1 ',1,32,34,211.47216288824941,34.35913272276995,0.0,0.0,0.0,0.0,1,1,0
314, '1 ',1,32,36,112.54732797056046,30.255845306920353,0.0,0.0,0.0,0.0,1,1,0
315, '1 ',1,32,36,161.35758744794683,40.77850672620534,0.0,0.0,0.0,0.0,1,1,0
316, '1 ',1,32,36,84.564100808613,11.320855440979823,0.0,0.0,0.0,0.0,1,1,0
317, '1 ',1,32,37,0.0,0.0,0.0,0.0,0.0,0.0,1,1,0
318, '1 ',1,32,37,231.3623805416986,57.03588651242127,0.0,0.0,0.0,0.0,1,1,0
319, '1 ',1,32,35,157.59004632808686,30.850848734443073,0.0,0.0,0.0,0.0,1,1,0
320, '1 ',1,32,35,90.73774054080248,13.818310296467597,0.0,0.0,0.0,0.0,1,1,0
321, '1 ',1,32,37,0.0,0.0,0.0,0.0,0.0,0.0,1,1,0
322, '1 ',1,32,37,0.0,0.0,0.0,0.0,0.0,0.0,1,1,0
323, '1 ',1,32,35,0.0,0.0,0.0,0.0,0.0,0.0,1,1,0
324, '1 ',1,32,36,0.0,0.0,0.0,0.0,0.0,0.0,1,1,0
325, '1 ',1,32,35,0.0,0.0,0.0,0.0,0.0,0.0,1,1,0
0 / END OF LOAD DATA, BEGIN FIXED SHUNT DATA
0 / END OF FIXED SHUNT DATA, BEGIN GENERATOR DATA
101,1,10,0,10.962238566949964,2.960615195799619,1.035,0,24,0,1,0,0,1,1,100,17.590787157416344,14.262574791330845,1,1,0,1
101,2,10,0,11.638464834075421,1.6256525376811624,1.035,0,24,0,1,0,0,1,1,100,24.234961536712945,20.987468061912807,1,1,0,1
101,3,76,14.1,28.86578164575621,-15.56261905189604,1.035,0,89,0,1,0,0,1,1,100,72.5328214475885,13.919777972878412,1,1,0,1
101,4,76,14.1,35.97986688092351,-19.597601803950965,1.035,0,89,0,1,0,0,1,1,100,58.03989921417087,39.66752601669421,1,1,0,1
102,5,10,0,8.043720360845327,-4.8975718771107495,1.035,0,24,0,1,0,0,1,1,100,25.09286829456687,21.601552363941448,1,1,0,1
102,6,10,0,7.407284077722579,-5.582317544147372,1.035,0,24,0,1,0,0,1,1,100,15.828671659342943,10.959411014234647,1,1,0,1
102,7,76,7,23.53756913356483,-46.51067392365076,1.035,0,89,0,1,0,0,1,1,100,91.86374731156977,30.853772430010153,1,1,0,1
102,8,76,7,23.216430725064125,-30.120688979513947,1.035,0,89,0,1,0,0,1,1,100,54.43598779235035,4.640071250345817,1,1,0,1
107,9,80,17.2,61.49178119469433,8.733353513292961,1.025,0,118,0,1,0,0,1,1,100,114.69731795135884,27.731302076717824,1,1,0,1
107,10,80,17.2,71.55538189318031,25.35329202376306,1.025,0,118,0,1,0,0,1,1,100,90.72404016274959,28.459989054059747,1,1,0,1
107,11,80,17.2,66.60569733101875,15.384405079297721,1.025,0,118,0,1,0,0,1,1,100,79.28900063969195,21.495112479897223,1,1,0,1
113,12,95.1,40.7,92.68439142405987,-6.025484751909971,1.02,0,232,0,1,0,0,1,1,100,202.37707799654456,108.96749499970117,1,1,0,1
113,13,95.1,40.7,80.54198163747787,0.6783942617475986,1.02,0,232,0,1,0,0,1,1,100,216.38567874473517,108.450415078965,1,1,0,1
113,14,95.1,40.7,66.67705399170518,-26.548660062253475,1.02,0,232,0,1,0,0,1,1,100,247.59458412360402,106.7877150714211,1,1,0,1
114,15,0,13.7,221.11473903991282,-90.65693767275667,0.98,0,100,0,1,0,0,1,1,100,0.0,0.0,1,1,0,1
115,16,12,0,4.650142100080847,0.050235347449779866,1.014,0,14,0,1,0,0,1,1,100,11.672034964710473,2.445258707106113,1,1,0,1
115,17,12,0,6.648941606841981,-0.15749932844191772,1.014,0,14,0,1,0,0,1,1,100,8.906741669028996,1.381782538890838,1,1,0,1
115,18,12,0,7.761458119936287,2.7906510631553827,1.014,0,14,0,1,0,0,1,1,100,12.848275340907277,3.447658341787756,1,1,0,1
115,19,12,0,5.647569263074548,0.6213250664994128,1.014,0,14,0,1,0,0,1,1,100,9.582314838655293,6.5284580088734225,1,1,0,1
115,20,12,0,4.326857372000813,-1.3973468975163996,1.014,0,14,0,1,0,0,1,1,100,9.410124545171856,0.0192185017567842,1,1,0,1
115,21,155,0.05,63.42799060046673,-39.75240722298622,1.014,0,182,0,1,0,0,1,1,100,191.9121644885745,108.99495083879447,1,1,0,1
116,22,155,25.22,62.78015615418553,-49.909689363092184,1.017,0,182,0,1,0,0,1,1,100,146.88484131218866,18.140054950385803,1,1,0,1
118,23,400,137.4,152.21288526430726,-36.77363652037454,1.05,0,471,0,1,0,0,1,1,100,344.4737652130425,105.21715874783698,1,1,0,1
121,24,400,108.2,141.590846888721,-100.86264335550368,1.05,0,471,0,1,0,0,1,1,100,455.8654875122011,214.5098965056241,1,1,0,1
122,25,50,-4.96,16.60435095205903,-16.794562678784132,1.05,0,53,0,1,0,0,1,1,100,61.0029649385251,5.1518619270063795,1,1,0,1
122,26,50,-4.96,17.265404672175645,-13.389943152759226,1.05,0,53,0,1,0,0,1,1,100,52.108192837331444,38.94473744336179,1,1,0,1
122,27,50,-4.96,16.325859675556423,-11.628287849389014,1.05,0,53,0,1,0,0,1,1,100,48.18449553102255,22.200218702290005,1,1,0,1
122,28,50,-4.96,15.43385571166873,-10.417387850116938,1.05,0,53,0,1,0,0,1,1,100,46.777310941834,1.3198516331613064,1,1,0,1
122,29,50,-4.96,12.420620112121105,-17.104172928072515,1.05,0,53,0,1,0,0,1,1,100,56.51124595431612,3.7969105574302446,1,1,0,1
122,30,50,-4.96,15.923948151618243,-17.7191702472046,1.05,0,53,0,1,0,0,1,1,100,42.15157698374241,4.9711782205849815,1,1,0,1
123,31,155,31.79,85.78002514317632,-76.40956898406148,1.05,0,182,0,1,0,0,1,1,100,159.61377710546367,60.741946108802225,1,1,0,1
123,32,155,31.79,61.65050191804767,-81.34475323650986,1.05,0,182,0,1,0,0,1,1,100,149.69730963627808,75.12376889694715,1,1,0,1
123,33,350,71.78,145.08165990002453,-12.721076734596863,1.05,0,412,0,1,0,0,1,1,100,278.67321979021654,90.9043218404986,1,1,0,1
201,34,10,0,7.049060183111577,-0.23523799097165554,1.035,0,24,0,1,0,0,1,1,100,17.758538731373847,14.369023249046878,1,1,0,1
201,35,10,0,7.421989375259726,-0.5186598314903685,1.035,0,24,0,1,0,0,1,1,100,18.043237107805908,14.32655633347109,1,1,0,1
201,36,76,14.1,25.82154102064669,-30.821477587567642,1.035,0,89,0,1,0,0,1,1,100,70.56420068256557,13.870931736305359,1,1,0,1
201,37,76,14.1,23.59869929216802,-21.28145038918592,1.035,0,89,0,1,0,0,1,1,100,95.25619993265718,45.97707034703345,1,1,0,1
202,38,10,0,11.13465774897486,2.4893723563291132,1.035,0,24,0,1,0,0,1,1,100,19.11442720051855,15.180179983396084,1,1,0,1
202,39,10,0,12.603726324625315,2.8882606644183415,1.035,0,24,0,1,0,0,1,1,100,16.09546076413244,11.268755020052197,1,1,0,1
202,40,76,7,22.953539226204153,-39.13507839734666,1.035,0,89,0,1,0,0,1,1,100,60.17677915561944,27.17901315240764,1,1,0,1
202,41,76,7,21.728584561496973,-43.345492556924,1.035,0,89,0,1,0,0,1,1,100,72.73016176503151,14.738923261426393,1,1,0,1
207,42,80,17.2,57.74399452563375,-17.573008686304092,1.025,0,118,0,1,0,0,1,1,100,111.9990616152063,58.46194050973281,1,1,0,1
207,43,80,17.2,72.08581689745188,2.2497266326099634,1.025,0,118,0,1,0,0,1,1,100,84.11948037333786,24.86531861592084,1,1,0,1
207,44,80,17.2,66.68824012577534,15.399983349256225,1.025,0,118,0,1,0,0,1,1,100,122.62756725773217,50.112176059046774,1,1,0,1
213,45,95.1,40.7,56.608600702136755,-30.571719970554113,1.02,0,232,0,1,0,0,1,1,100,224.28312043468466,100.21524357430168,1,1,0,1
213,46,95.1,40.7,97.63216026872396,9.954277630895376,1.02,0,232,0,1,0,0,1,1,100,189.01945509635846,55.01730749553073,1,1,0,1
213,47,95.1,40.7,76.39426090195775,-5.669620491564274,1.02,0,232,0,1,0,0,1,1,100,139.12361524929293,24.093884089784694,1,1,0,1
214,48,0,13.68,184.0140599757433,-100.83519073668867,0.98,0,100,0,1,0,0,1,1,100,0.0,0.0,1,1,0,1
215,49,12,0,5.996418656688183,1.7880270246416332,1.014,0,14,0,1,0,0,1,1,100,13.933330113999546,2.1794249257072806,1,1,0,1
215,50,12,0,6.51311128763482,2.02553155431524,1.014,0,14,0,1,0,0,1,1,100,12.132478365115823,2.2261928608641046,1,1,0,1
215,51,12,0,5.039227333758026,0.6507364422082897,1.014,0,14,0,1,0,0,1,1,100,11.767951853759588,1.0750314651802189,1,1,0,1
215,52,12,0,6.203656776063145,1.987544856313617,1.014,0,14,0,1,0,0,1,1,100,10.870346843451262,5.826093250241855,1,1,0,1
215,53,12,0,6.057112403959035,-1.6124731899239135,1.014,0,14,0,1,0,0,1,1,100,15.218214347027242,6.372217901609838,1,1,0,1
215,54,155,0.048,98.91115228086711,-21.884733795188353,1.014,0,182,0,1,0,0,1,1,100,118.94373083743267,18.354461911844552,1,1,0,1
216,55,155,25.22,88.6632396504283,-32.65162761788815,1.017,0,182,0,1,0,0,1,1,100,157.28282247041352,39.19430592386051,1,1,0,1
218,56,400,137.4,220.88470078073442,-27.835907416883856,1.05,0,471,0,1,0,0,1,1,100,297.14570177718997,69.99179042875767,1,1,0,1
221,57,400,108.2,255.9182094875723,-28.4542239154689,1.05,0,471,0,1,0,0,1,1,100,384.46774093434215,70.72722126729786,1,1,0,1
222,58,50,-4.96,16.785617607831956,-10.948402506858109,1.05,0,53,0,1,0,0,1,1,100,35.02912980969995,2.684830055119698,1,1,0,1
222,59,50,-4.96,15.956535207480192,-10.934829145111143,1.05,0,53,0,1,0,0,1,1,100,62.42380035109818,52.76192553279308,1,1,0,1
222,60,50,-4.96,12.290420181304215,-8.987757352367042,1.05,0,53,0,1,0,0,1,1,100,54.960009118076414,8.171834719832987,1,1,0,1
222,61,50,-4.96,13.214860378205776,-7.512952871900049,1.05,0,53,0,1,0,0,1,1,100,54.32707220548764,11.645713790785521,1,1,0,1
222,62,50,-4.96,15.65998128503561,-15.820353698264807,1.05,0,53,0,1,0,0,1,1,100,64.25512599758805,5.633299523033216,1,1,0,1
222,63,50,-4.96,17.43455078974366,-14.951433576736605,1.05,0,53,0,1,0,0,1,1,100,43.28835502732545,0.07520247017964721,1,1,0,1
223,64,155,31.79,94.08145825564861,-21.814499302767217,1.05,0,182,0,1,0,0,1,1,100,111.85047635971567,35.308158498816184,1,1,0,1
223,65,155,31.79,103.36113995686173,7.757740531116724,1.05,0,182,0,1,0,0,1,1,100,184.9635455349926,60.25227474301353,1,1,0,1
223,66,350,71.78,174.2758489935659,22.62322378461249,1.05,0,412,0,1,0,0,1,1,100,309.2594503494911,70.1924680904485,1,1,0,1
301,67,10,0,11.261814009863883,1.4726589429192245,1.035,0,24,0,1,0,0,1,1,100,25.679616662673652,20.396445617629215,1,1,0,1
301,68,10,0,8.719465260859579,0.5578243019990623,1.035,0,24,0,1,0,0,1,1,100,21.110543513670564,17.32588355540298,1,1,0,1
301,69,76,14.1,30.16251206444576,-17.915819728048522,1.035,0,89,0,1,0,0,1,1,100,81.97444097045809,6.560051935948437,1,1,0,1
301,70,76,14.1,28.432858614251018,-19.191573676886037,1.035,0,89,0,1,0,0,1,1,100,61.77407463695853,17.075396158359936,1,1,0,1
302,71,10,0,10.525372109841555,1.5360941304825246,1.035,0,24,0,1,0,0,1,1,100,14.396446124650538,10.835520069515333,1,1,0,1
302,72,10,0,10.954487561248243,1.0981101128272712,1.035,0,24,0,1,0,0,1,1,100,21.892056876793504,17.16705854859203,1,1,0,1
302,73,76,7,24.98384524416178,-14.943175217369568,1.035,0,89,0,1,0,0,1,1,100,89.8380335316062,42.382915031909945,1,1,0,1
302,74,76,7,36.2482591252774,-27.61656366963871,1.035,0,89,0,1,0,0,1,1,100,82.71829147990793,39.22688349988312,1,1,0,1
307,75,80,17.2,54.885556139051914,-6.622687146998942,1.025,0,118,0,1,0,0,1,1,100,70.41847125161439,31.550862748682757,1,1,0,1
307,76,80,17.2,46.131207978352904,-17.962063875049353,1.025,0,118,0,1,0,0,1,1,100,78.53301108814776,59.16895093923975,1,1,0,1
307,77,80,17.2,65.68951042089611,3.01679424662143,1.025,0,118,0,1,0,0,1,1,100,79.4295425945893,24.52897563600051,1,1,0,1
313,78,95.1,40.7,60.02390536293387,-15.36135000362993,1.02,0,232,0,1,0,0,1,1,100,176.4513847888913,43.266114278715094,1,1,0,1
313,79,95.1,40.7,78.69401045888662,1.5262822732329369,1.02,0,232,0,1,0,0,1,1,100,140.50608961856923,7.262272805312437,1,1,0,1
313,80,95.1,40.7,82.51897963136435,7.511214315891266,1.02,0,232,0,1,0,0,1,1,100,187.93650722932068,47.8362935738661,1,1,0,1
314,81,0,13.68,253.32879875786602,-64.88999731373042,0.98,0,100,0,1,0,0,1,1,100,0.0,0.0,1,1,0,1
315,82,12,0,4.8380688216537235,-0.11066306401044113,1.014,0,14,0,1,0,0,1,1,100,10.725072763860226,0.5124505707621569,1,1,0,1
315,83,12,0,5.383243505749851,-0.9158676191233095,1.014,0,14,0,1,0,0,1,1,100,11.041160773113369,4.075704995853859,1,1,0,1
315,84,12,0,6.174977355916052,0.6832517146132879,1.014,0,14,0,1,0,0,1,1,100,15.398871876485645,5.794319664873182,1,1,0,1
315,85,12,0,7.025004294142128,-0.20682215569540752,1.014,0,14,0,1,0,0,1,1,100,12.554432684741913,0.4938213587924807,1,1,0,1
315,86,12,0,7.121532410848886,2.612737859319896,1.014,0,14,0,1,0,0,1,1,100,9.028434268198907,0.5809455452486869,1,1,0,1
315,87,155,0.048,93.18101611360908,-5.894280570093542,1.014,0,182,0,1,0,0,1,1,100,175.4158868708182,98.85980419380358,1,1,0,1
316,88,155,25.22,57.99321702122688,-91.37599755777046,1.017,0,182,0,1,0,0,1,1,100,119.95777526427992,3.959781166259191,1,1,0,1
318,89,400,137.4,221.36514987796545,-44.131169584579766,1.05,0,471,0,1,0,0,1,1,100,469.18945701792836,152.84993544686586,1,1,0,1
321,90,400,108.2,177.86711945198476,-1.7220396245829477,1.05,0,471,0,1,0,0,1,1,100,288.5492988303303,219.23305556715593,1,1,0,1
322,91,50,-4.96,12.429209848493336,-9.325800106022509,1.05,0,53,0,1,0,0,1,1,100,54.98074085451663,52.815036041101656,1,1,0,1
322,92,50,-4.96,20.178753098100422,0.17618364607915282,1.05,0,53,0,1,0,0,1,1,100,43.36944878799841,13.114535657597242,1,1,0,1
322,93,50,-4.96,14.838223376125097,-5.126804867666213,1.05,0,53,0,1,0,0,1,1,100,46.956878632772714,7.227637460455298,1,1,0,1
322,94,50,-4.96,13.274718662351368,-9.431197320949288,1.05,0,53,0,1,0,0,1,1,100,48.60012157354504,28.74891083179022,1,1,0,1
322,95,50,-4.96,16.30847750157118,-13.622505275066942,1.05,0,53,0,1,0,0,1,1,100,44.530775072053075,29.55856616368627,1,1,0,1
322,96,50,-4.96,19.440276735275987,-8.74165640538558,1.05,0,53,0,1,0,0,1,1,100,59.933138953056186,54.52054102569039,1,1,0,1
323,97,155,31.79,61.68370575457811,-30.03090840950609,1.05,0,182,0,1,0,0,1,1,100,118.23561658151448,3.365260544531321,1,1,0,1
323,98,155,31.79,61.50969446077943,-81.39818835118786,1.05,0,182,0,1,0,0,1,1,100,172.0124522051774,49.868020934285596,1,1,0,1
323,99,350,71.78,124.89100288599728,-80.88475066935648,1.05,0,412,0,1,0,0,1,1,100,271.95380591088906,96.19018564466387,1,1,0,1
0 / END OF GENERATOR DATA, BEGIN BRANCH DATA
101,102,1,0.003,0.014,0.461,210.0,231.6,240.0,0,0,0,0,1,1,0,1,1
101,103,1,0.055,0.211,0.057,210.0,249.6,264.0,0,0,0,0,1,1,0,1,1
101,105,1,0.022,0.085,0.023,210.0,249.6,264.0,0,0,0,0,1,1,0,1,1
102,104,1,0.033,0.127,0.034,210.0,249.6,264.0,0,0,0,0,1,1,0,1,1
102,106,1,0.05,0.192,0.052,210.0,249.6,264.0,0,0,0,0,1,1,0,1,1
103,109,1,0.031,0.119,0.032,210.0,249.6,264.0,0,0,0,0,1,1,0,1,1
104,109,1,0.027,0.104,0.028,210.0,249.6,264.0,0,0,0,0,1,1,0,1,1
105,110,1,0.023,0.088,0.024,210.0,249.6,264.0,0,0,0,0,1,1,0,1,1
106,110,1,0.014,0.061,2.459,210.0,231.6,240.0,0,0,0,0,1,1,0,1,1
107,108,1,0.016,0.061,0.017,210.0,249.6,264.0,0,0,0,0,1,1,0,1,1
107,203,1,0.042,0.161,0.044,210.0,249.6,264.0,0,0,0,0,1,1,0,1,1
108,109,1,0.043,0.165,0.045,210.0,249.6,264.0,0,0,0,0,1,1,0,1,1
108,110,1,0.043,0.165,0.045,210.0,249.6,264.0,0,0,0,0,1,1,0,1,1
111,113,1,0.006,0.048,0.1,600.0,720.0,750.0,0,0,0,0,1,1,0,1,1
111,114,1,0.005,0.042,0.088,600.0,720.0,750.0,0,0,0,0,1,1,0,1,1
112,113,1,0.006,0.048,0.1,600.0,720.0,750.0,0,0,0,0,1,1,0,1,1
112,123,1,0.012,0.097,0.203,600.0,720.0,750.0,0,0,0,0,1,1,0,1,1
113,123,1,0.011,0.087,0.182,600.0,720.0,750.0,0,0,0,0,1,1,0,1,1
113,215,1,0.01,0.075,0.158,600.0,720.0,750.0,0,0,0,0,1,1,0,1,1
114,116,1,0.005,0.059,0.082,600.0,720.0,750.0,0,0,0,0,1,1,0,1,1
115,116,1,0.002,0.017,0.036,600.0,720.0,750.0,0,0,0,0,1,1,0,1,1
115,121,1,0.006,0.049,0.103,600.0,720.0,750.0,0,0,0,0,1,1,0,1,1
115,121,2,0.006,0.049,0.103,600.0,720.0,750.0,0,0,0,0,1,1,0,1,1
115,124,1,0.007,0.052,0.109,600.0,720.0,750.0,0,0,0,0,1,1,0,1,1
116,117,1,0.003,0.026,0.055,600.0,720.0,750.0,0,0,0,0,1,1,0,1,1
116,119,1,0.003,0.023,0.049,600.0,720.0,750.0,0,0,0,0,1,1,0,1,1
117,118,1,0.002,0.014,0.03,600.0,720.0,750.0,0,0,0,0,1,1,0,1,1
117,122,1,0.014,0.105,0.221,600.0,720.0,750.0,0,0,0,0,1,1,0,1,1
118,121,1,0.003,0.026,0.055,600.0,720.0,750.0,0,0,0,0,1,1,0,1,1
118,121,2,0.003,0.026,0.055,600.0,720.0,750.0,0,0,0,0,1,1,0,1,1
119,120,1,0.005,0.04,0.083,600.0,720.0,750.0,0,0,0,0,1,1,0,1,1
119,120,2,0.005,0.04,0.083,600.0,720.0,750.0,0,0,0,0,1,1,0,1,1
120,123,1,0.003,0.022,0.046,600.0,720.0,750.0,0,0,0,0,1,1,0,1,1
120,123,2,0.003,0.022,0.046,600.0,720.0,750.0,0,0,0,0,1,1,0,1,1
121,122,1,0.009,0.068,0.142,600.0,720.0,750.0,0,0,0,0,1,1,0,1,1
123,217,1,0.01,0.074,0.155,600.0,720.0,750.0,0,0,0,0,1,1,0,1,1
201,202,1,0.003,0.014,0.461,210.0,231.6,240.0,0,0,0,0,1,1,0,1,1
201,203,1,0.055,0.211,0.057,210.0,249.6,264.0,0,0,0,0,1,1,0,1,1
201,205,1,0.022,0.085,0.023,210.0,249.6,264.0,0,0,0,0,1,1,0,1,1
202,204,1,0.033,0.127,0.034,210.0,249.6,264.0,0,0,0,0,1,1,0,1,1
202,206,1,0.05,0.192,0.052,210.0,249.6,264.0,0,0,0,0,1,1,0,1,1
203,209,1,0.031,0.119,0.032,210.0,249.6,264.0,0,0,0,0,1,1,0,1,1
204,209,1,0.027,0.104,0.028,210.0,249.6,264.0,0,0,0,0,1,1,0,1,1
205,210,1,0.023,0.088,0.024,210.0,249.6,264.0,0,0,0,0,1,1,0,1,1
206,210,1,0.014,0.061,2.459,210.0,231.6,240.0,0,0,0,0,1,1,0,1,1
207,208,1,0.016,0.061,0.017,210.0,249.6,264.0,0,0,0,0,1,1,0,1,1
208,209,1,0.043,0.165,0.045,210.0,249.6,264.0,0,0,0,0,1,1,0,1,1
208,210,1,0.043,0.165,0.045,210.0,249.6,264.0,0,0,0,0,1,1,0,1,1
211,213,1,0.006,0.048,0.1,600.0,720.0,750.0,0,0,0,0,1,1,0,1,1
211,214,1,0.005,0.042,0.088,600.0,720.0,750.0,0,0,0,0,1,1,0,1,1
212,213,1,0.006,0.048,0.1,600.0,720.0,750.0,0,0,0,0,1,1,0,1,1
212,223,1,0.012,0.097,0.203,600.0,720.0,750.0,0,0,0,0,1,1,0,1,1
213,223,1,0.011,0.087,0.182,600.0,720.0,750.0,0,0,0,0,1,1,0,1,1
214,216,1,0.005,0.059,0.082,600.0,720.0,750.0,0,0,0,0,1,1,0,1,1
215,216,1,0.002,0.017,0.036,600.0,720.0,750.0,0,0,0,0,1,1,0,1,1
215,221,1,0.006,0.049,0.103,600.0,720.0,750.0,0,0,0,0,1,1,0,1,1
215,221,2,0.006,0.049,0.103,600.0,720.0,750.0,0,0,0,0,1,1,0,1,1
215,224,1,0.007,0.052,0.109,600.0,720.0,750.0,0,0,0,0,1,1,0,1,1
216,217,1,0.003,0.026,0.055,600.0,720.0,750.0,0,0,0,0,1,1,0,1,1
216,219,1,0.003,0.023,0.049,600.0,720.0,750.0,0,0,0,0,1,1,0,1,1
217,218,1,0.002,0.014,0.03,600.0,720.0,750.0,0,0,0,0,1,1,0,1,1
217,222,1,0.014,0.105,0.221,600.0,720.0,750.0,0,0,0,0,1,1,0,1,1
218,221,1,0.003,0.026,0.055,600.0,720.0,750.0,0,0,0,0,1,1,0,1,1
218,221,2,0.003,0.026,0.055,600.0,720.0,750.0,0,0,0,0,1,1,0,1,1
219,220,1,0.005,0.04,0.083,600.0,720.0,750.0,0,0,0,0,1,1,0,1,1
219,220,2,0.005,0.04,0.083,600.0,720.0,750.0,0,0,0,0,1,1,0,1,1
220,223,1,0.003,0.022,0.046,600.0,720.0,750.0,0,0,0,0,1,1,0,1,1
220,223,2,0.003,0.022,0.046,600.0,720.0,750.0,0,0,0,0,1,1,0,1,1
221,222,1,0.009,0.068,0.142,600.0,720.0,750.0,0,0,0,0,1,1,0,1,1
301,302,1,0.003,0.014,0.461,210.0,231.6,240.0,0,0,0,0,1,1,0,1,1
301,303,1,0.055,0.211,0.057,210.0,249.6,264.0,0,0,0,0,1,1,0,1,1
301,305,1,0.022,0.085,0.023,210.0,249.6,264.0,0,0,0,0,1,1,0,1,1
302,304,1,0.033,0.127,0.034,210.0,249.6,264.0,0,0,0,0,1,1,0,1,1
302,306,1,0.05,0.192,0.052,210.0,249.6,264.0,0,0,0,0,1,1,0,1,1
303,309,1,0.031,0.119,0.032,210.0,249.6,264.0,0,0,0,0,1,1,0,1,1
304,309,1,0.027,0.104,0.028,210.0,249.6,264.0,0,0,0,0,1,1,0,1,1
305,310,1,0.023,0.088,0.024,210.0,249.6,264.0,0,0,0,0,1,1,0,1,1
306,310,1,0.014,0.061,2.459,210.0,231.6,240.0,0,0,0,0,1,1,0,1,1
307,308,1,0.016,0.061,0.017,210.0,249.6,264.0,0,0,0,0,1,1,0,1,1
308,309,1,0.043,0.165,0.045,210.0,249.6,264.0,0,0,0,0,1,1,0,1,1
308,310,1,0.043,0.165,0.045,210.0,249.6,264.0,0,0,0,0,1,1,0,1,1
311,313,1,0.006,0.048,0.1,600.0,720.0,750.0,0,0,0,0,1,1,0,1,1
311,314,1,0.005,0.042,0.088,600.0,720.0,750.0,0,0,0,0,1,1,0,1,1
312,313,1,0.006,0.048,0.1,600.0,720.0,750.0,0,0,0,0,1,1,0,1,1
312,323,1,0.012,0.097,0.203,600.0,720.0,750.0,0,0,0,0,1,1,0,1,1
313,323,1,0.011,0.087,0.182,600.0,720.0,750.0,0,0,0,0,1,1,0,1,1
314,316,1,0.005,0.059,0.082,600.0,720.0,750.0,0,0,0,0,1,1,0,1,1
315,316,1,0.002,0.017,0.036,600.0,720.0,750.0,0,0,0,0,1,1,0,1,1
315,321,1,0.006,0.049,0.103,600.0,720.0,750.0,0,0,0,0,1,1,0,1,1
315,321,2,0.006,0.049,0.103,600.0,720.0,750.0,0,0,0,0,1,1,0,1,1
315,324,1,0.007,0.052,0.109,600.0,720.0,750.0,0,0,0,0,1,1,0,1,1
316,317,1,0.003,0.026,0.055,600.0,720.0,750.0,0,0,0,0,1,1,0,1,1
316,319,1,0.003,0.023,0.049,600.0,720.0,750.0,0,0,0,0,1,1,0,1,1
317,318,1,0.002,0.014,0.03,600.0,720.0,750.0,0,0,0,0,1,1,0,1,1
317,322,1,0.014,0.105,0.221,600.0,720.0,750.0,0,0,0,0,1,1,0,1,1
318,223,1,0.013,0.104,0.218,600.0,720.0,750.0,0,0,0,0,1,1,0,1,1
318,321,1,0.003,0.026,0.055,600.0,720.0,750.0,0,0,0,0,1,1,0,1,1
318,321,2,0.003,0.026,0.055,600.0,720.0,750.0,0,0,0,0,1,1,0,1,1
319,320,1,0.005,0.04,0.083,600.0,720.0,750.0,0,0,0,0,1,1,0,1,1
319,320,2,0.005,0.04,0.083,600.0,720.0,750.0,0,0,0,0,1,1,0,1,1
320,323,1,0.003,0.022,0.046,600.0,720.0,750.0,0,0,0,0,1,1,0,1,1
320,323,2,0.003,0.022,0.046,600.0,720.0,750.0,0,0,0,0,1,1,0,1,1
321,322,1,0.009,0.068,0.142,600.0,720.0,750.0,0,0,0,0,1,1,0,1,1
323,325,1,0,0.009,0,866.4,1071.6,1071.6,0,0,0,0,1,1,0,1,1
0 / END OF BRANCH DATA, BEGIN TRANSFORMER DATA
  103 ,  124 , 0,  1 , 1, 1, 1, 0, 0, 2, '            ',  1 , 1, 1
   0.002000 ,  0.084000 ,  100.000000
   1.015000 , 0,  0.000000 ,  400.000000 ,  510.000000 ,  600.000000 , 0, 0,  1.10 ,  0.90 ,  1.10 ,  0.90 , 33, 0, 0, 0
   1.000000, 0
  109 ,  111 , 0,  1 , 1, 1, 1, 0, 0, 2, '            ',  1 , 1, 1
   0.002000 ,  0.084000 ,  100.000000
   1.030000 , 0,  0.000000 ,  400.000000 ,  510.000000 ,  600.000000 , 0, 0,  1.10 ,  0.90 ,  1.10 ,  0.90 , 33, 0, 0, 0
   1.000000, 0
  109 ,  112 , 0,  1 , 1, 1, 1, 0, 0, 2, '            ',  1 , 1, 1
   0.002000 ,  0.084000 ,  100.000000
   1.030000 , 0,  0.000000 ,  400.000000 ,  510.000000 ,  600.000000 , 0, 0,  1.10 ,  0.90 ,  1.10 ,  0.90 , 33, 0, 0, 0
   1.000000, 0
  110 ,  111 , 0,  1 , 1, 1, 1, 0, 0, 2, '            ',  1 , 1, 1
   0.002000 ,  0.084000 ,  100.000000
   1.015000 , 0,  0.000000 ,  400.000000 ,  510.000000 ,  600.000000 , 0, 0,  1.10 ,  0.90 ,  1.10 ,  0.90 , 33, 0, 0, 0
   1.000000, 0
  110 ,  112 , 0,  1 , 1, 1, 1, 0, 0, 2, '            ',  1 , 1, 1
   0.002000 ,  0.084000 ,  100.000000
   1.015000 , 0,  0.000000 ,  400.000000 ,  510.000000 ,  600.000000 , 0, 0,  1.10 ,  0.90 ,  1.10 ,  0.90 , 33, 0, 0, 0
   1.000000, 0
  203 ,  224 , 0,  1 , 1, 1, 1, 0, 0, 2, '            ',  1 , 1, 1
   0.002000 ,  0.084000 ,  100.000000
   1.015000 , 0,  0.000000 ,  400.000000 ,  510.000000 ,  600.000000 , 0, 0,  1.10 ,  0.90 ,  1.10 ,  0.90 , 33, 0, 0, 0
   1.000000, 0
  209 ,  211 , 0,  1 , 1, 1, 1, 0, 0, 2, '            ',  1 , 1, 1
   0.002000 ,  0.084000 ,  100.000000
   1.030000 , 0,  0.000000 ,  400.000000 ,  510.000000 ,  600.000000 , 0, 0,  1.10 ,  0.90 ,  1.10 ,  0.90 , 33, 0, 0, 0
   1.000000, 0
  209 ,  212 , 0,  1 , 1, 1, 1, 0, 0, 2, '            ',  1 , 1, 1
   0.002000 ,  0.084000 ,  100.000000
   1.030000 , 0,  0.000000 ,  400.000000 ,  510.000000 ,  600.000000 , 0, 0,  1.10 ,  0.90 ,  1.10 ,  0.90 , 33, 0, 0, 0
   1.000000, 0
  210 ,  211 , 0,  1 , 1, 1, 1, 0, 0, 2, '            ',  1 , 1, 1
   0.002000 ,  0.084000 ,  100.000000
   1.015000 , 0,  0.000000 ,  400.000000 ,  510.000000 ,  600.000000 , 0, 0,  1.10 ,  0.90 ,  1.10 ,  0.90 , 33, 0, 0, 0
   1.000000, 0
  210 ,  212 , 0,  1 , 1, 1, 1, 0, 0, 2, '            ',  1 , 1, 1
   0.002000 ,  0.084000 ,  100.000000
   1.015000 , 0,  0.000000 ,  400.000000 ,  510.000000 ,  600.000000 , 0, 0,  1.10 ,  0.90 ,  1.10 ,  0.90 , 33, 0, 0, 0
   1.000000, 0
  303 ,  324 , 0,  1 , 1, 1, 1, 0, 0, 2, '            ',  1 , 1, 1
   0.002000 ,  0.084000 ,  100.000000
   1.015000 , 0,  0.000000 ,  400.000000 ,  510.000000 ,  600.000000 , 0, 0,  1.10 ,  0.90 ,  1.10 ,  0.90 , 33, 0, 0, 0
   1.000000, 0
  309 ,  311 , 0,  1 , 1, 1, 1, 0, 0, 2, '            ',  1 , 1, 1
   0.002000 ,  0.084000 ,  100.000000
   1.030000 , 0,  0.000000 ,  400.000000 ,  510.000000 ,  600.000000 , 0, 0,  1.10 ,  0.90 ,  1.10 ,  0.90 , 33, 0, 0, 0
   1.000000, 0
  309 ,  312 , 0,  1 , 1, 1, 1, 0, 0, 2, '            ',  1 , 1, 1
   0.002000 ,  0.084000 ,  100.000000
   1.030000 , 0,  0.000000 ,  400.000000 ,  510.000000 ,  600.000000 , 0, 0,  1.10 ,  0.90 ,  1.10 ,  0.90 , 33, 0, 0, 0
   1.000000, 0
  310 ,  311 , 0,  1 , 1, 1, 1, 0, 0, 2, '            ',  1 , 1, 1
   0.002000 ,  0.084000 ,  100.000000
   1.015000 , 0,  0.000000 ,  400.000000 ,  510.000000 ,  600.000000 , 0, 0,  1.10 ,  0.90 ,  1.10 ,  0.90 , 33, 0, 0, 0
   1.000000, 0
  310 ,  312 , 0,  1 , 1, 1, 1, 0, 0, 2, '            ',  1 , 1, 1
   0.002000 ,  0.084000 ,  100.000000
   1.015000 , 0,  0.000000 ,  400.000000 ,  510.000000 ,  600.000000 , 0, 0,  1.10 ,  0.90 ,  1.10 ,  0.90 , 33, 0, 0, 0
   1.000000, 0
0 / END OF TRANSFORMER DATA, BEGIN AREA DATA
0 / END OF AREA DATA, BEGIN TWO-TERMINAL DC DATA
0 / END OF TWO-TERMINAL DC DATA, BEGIN VSC DC LINE DATA
0 / END OF VSC DC LINE DATA, BEGIN SWITCHED SHUNT DATA
0 / END OF SWITCHED SHUNT DATA, BEGIN IMPEDANCE CORRECTION DATA
0 / END OF IMPEDANCE CORRECTION DATA, BEGIN MULTI-TERMINAL DC DATA
0 / END OF MULTI-TERMINAL DC DATA, BEGIN MULTI-SECTION LINE DATA
0 / END OF MULTI-SECTION LINE DATA, BEGIN ZONE DATA
0 / END OF ZONE DATA, BEGIN INTER-AREA TRANSFER DATA
0 / END OF INTER-AREA TRANSFER DATA, BEGIN OWNER DATA
0 / END OF OWNER DATA, BEGIN FACTS CONTROL DEVICE DATA
0 / END OF FACTS CONTROL DEVICE DATA
0 / END OF SWITCHED SHUNT DATA, BEGIN GNE DATA
0 / END OF GNE DATA, BEGIN INDUCTION MACHINE DATA
0 / END OF INDUCTION MACHINE DATA
Q 
